LAMMPS (11 Aug 2017)

# ---------- Initialize simulation ---------------------
units metal
atom_style atomic
dimension  3
boundary   p p p
read_data /Users/simonbatzner1/Desktop/Research/Research_Code/ML-electron-density/EAM/lammps.data
  orthogonal box = (0 0 0) to (12.27 12.27 12.27)
  reading atoms ...
  107 atoms
pair_style eam
pair_coeff * * /usr/local/Cellar/lammps/2017-08-11_4/bin/pots/Ag_u3.eam
Reading potential file /usr/local/Cellar/lammps/2017-08-11_4/bin/pots/Ag_u3.eam with DATE: 2007-06-11
velocity  all create 900 87287 dist gaussian

# ---------- Describe computed properties------------------
compute msdall all msd
thermo_style custom step pe ke etotal temp press density c_msdall[4]
thermo 100

# ---------- Specify ensemble  ---------------------
#fix  1 all nve
fix  1 all nvt temp 900 900 0.05

# --------- Compute RDF ---------------
compute rdfall all rdf 100 1 1
fix 2 all ave/time 1 2500 2500 c_rdfall[*] file /Users/simonbatzner1/Desktop/Research/Research_Code/ML-electron-density/EAM/lammps.rdf mode vector

# --------- Run -------------
timestep 0.001
run 10000
  update every 1 steps, delay 10 steps, check yes
Step PotEng KinEng TotEng Temp Press Density c_msdall[4]
0   -303.98319    12.331418   -291.65177          900    5453.4898     10.37528            0
Averages over the last 51 of 101 rows, steps 5000 to 10000:
PotEng KinEng TotEng Temp Press Density c_msdall[4]
-291.585 12.2243 -279.361 892.18 47747.6 10.3753 0.0675527
Loop time of 3.08478 on 1 procs for 10000 steps with 107 atoms
